Circuit: * D:\Ecole\EI-2I-3-S6\Projet_electronique_et_informatique\Draft1.asc


Date: Wed Nov 17 21:21:19 2021
Total elapsed time: 0.031 seconds.

tnom = 27
temp = 27
method = trap
totiter = 0
traniter = 0
tranpoints = 0
accept = 0
rejected = 0
matrix size = 4
fillins = 0
solver = Normal

