
**** 03/31/21 14:21:49 ************** PSpice Lite (Mar 2000) *****************

 ** Profile: "SCHEMATIC1-sim1"  [ D:\Ecole\EI-2I-3-S6\Electronique Analogique\TP\TP2\Pspce_TP2_julian_BARKOUDEH\tp2-schematic1-sim1.s


 ****     CIRCUIT DESCRIPTION


******************************************************************************




** Creating circuit file "tp2-schematic1-sim1.sim.cir" 
** WARNING: THIS AUTOMATICALLY GENERATED FILE MAY BE OVERWRITTEN BY SUBSEQUENT SIMULATIONS

*Libraries: 
* Local Libraries :
* From [PSPICE NETLIST] section of C:\Program Files\OrcadLite\PSpice\PSpice.ini file:
.lib "nom.lib" 

*Analysis directives: 
.AC DEC 50 10 100k
.PROBE V(*) I(*) W(*) D(*) NOISE(*) 
.INC ".\tp2-SCHEMATIC1.net" 



**** INCLUDING tp2-SCHEMATIC1.net ****
* source TP2
V_V3         N03926 0 DC 0Vdc AC 2.5Vac 
R_R1         S 0  10k  
E_LAPLACE1         S 0 LAPLACE {V(S1)} {(1)/(1 + (s/6283.18)*0.7653 +
+  (s/6283.18)**2)}
E_LAPLACE1         S1 0 LAPLACE {V(N03926)} {(0.999)/(1 + (s/6283.18)*1.8478 +
+  (s/6283.18)**2)}
-------------------$
ERROR -- Name "E_LAPLACE1" is defined more than once

**** RESUMING tp2-schematic1-sim1.sim.cir ****
.END
